AeroDyn airfoil file Created with QBlade v0.96 64bit on 30.03.2022 at 16:36:45 Compatible with AeroDyn v13.0.
Polar "T1_Re1.000_M0.00_N9.0 360 M" on Foil "T1_Re1.000_M0.00_N9.0" :: generated by QBlade
1              Number of airfoil tables in this file
0              Table ID parameter
13.50          Stall angle (deg)
0              No longer used, enter zero
0              No longer used, enter zero
0              No longer used, enter zero
-5.26          Angle of attack for zero Cn for linear Cn curve (deg)
6.82065        Cn slope for zero lift for linear Cn curve (1/rad)
-0.7514        Cn at stall value for positive angle of attack for linear Cn curve
-0.7730        Cn at stall value for negative angle of attack for linear Cn curve
-7.50          Angle of attack for minimum CD (deg)
0.0076         Minimum CD value
   -180.00   -0.1502    0.0060
   -179.00   -0.0598    0.0065
   -178.00    0.0295    0.0080
   -177.00    0.1132    0.0105
   -176.00    0.1814    0.0140
   -175.00    0.2244    0.0185
   -174.00    0.2410    0.0239
   -173.00    0.2407    0.0304
   -172.00    0.2348    0.0377
   -171.00    0.2304    0.0461
   -170.00    0.2300    0.0553
   -169.00    0.2338    0.0655
   -168.00    0.2408    0.0767
   -167.00    0.2501    0.0887
   -166.00    0.2608    0.1015
   -165.00    0.2722    0.1153
   -164.00    0.2839    0.1299
   -163.00    0.2956    0.1453
   -162.00    0.3068    0.1615
   -161.00    0.3176    0.1785
   -160.00    0.3277    0.1963
   -159.00    0.3370    0.2148
   -158.00    0.3454    0.2340
   -157.00    0.3529    0.2539
   -156.00    0.3596    0.2745
   -155.00    0.3652    0.2957
   -154.00    0.3699    0.3175
   -153.00    0.3737    0.3399
   -152.00    0.3765    0.3629
   -151.00    0.3784    0.3863
   -150.00    0.3794    0.4103
   -149.00    0.3795    0.4348
   -148.00    0.3787    0.4597
   -147.00    0.3771    0.4850
   -146.00    0.3747    0.5106
   -145.00    0.3716    0.5367
   -144.00    0.3677    0.5630
   -143.00    0.3631    0.5896
   -142.00    0.3579    0.6165
   -141.00    0.3521    0.6435
   -140.00    0.3457    0.6708
   -139.00    0.3388    0.6982
   -138.00    0.3314    0.7257
   -137.00    0.3236    0.7533
   -136.00    0.3154    0.7809
   -135.00    0.3068    0.8086
   -134.00    0.2980    0.8362
   -133.00    0.2888    0.8638
   -132.00    0.2795    0.8913
   -131.00    0.2699    0.9187
   -130.00    0.2602    0.9459
   -129.00    0.2504    0.9730
   -128.00    0.2405    0.9998
   -127.00    0.2306    1.0264
   -126.00    0.2206    1.0527
   -125.00    0.2107    1.0787
   -124.00    0.2009    1.1043
   -123.00    0.1911    1.1296
   -122.00    0.1814    1.1545
   -121.00    0.1719    1.1789
   -120.00    0.1626    1.2029
   -119.00    0.1534    1.2264
   -118.00    0.1444    1.2493
   -117.00    0.1356    1.2717
   -116.00    0.1270    1.2936
   -115.00    0.1187    1.3149
   -114.00    0.1106    1.3355
   -113.00    0.1028    1.3555
   -112.00    0.0952    1.3748
   -111.00    0.0879    1.3934
   -110.00    0.0803    1.4113
   -109.00    0.0736    1.4285
   -108.00    0.0671    1.4449
   -107.00    0.0609    1.4606
   -106.00    0.0549    1.4754
   -105.00    0.0492    1.4894
   -104.00    0.0437    1.5027
   -103.00    0.0384    1.5150
   -102.00    0.0334    1.5265
   -101.00    0.0285    1.5372
   -100.00    0.0239    1.5469
    -99.00    0.0194    1.5558
    -98.00    0.0151    1.5637
    -97.00    0.0109    1.5708
    -96.00    0.0068    1.5769
    -95.00    0.0029    1.5821
    -94.00   -0.0010    1.5864
    -93.00   -0.0048    1.5897
    -92.00   -0.0085    1.5920
    -91.00   -0.0122    1.5935
    -90.00   -0.0159    1.5939
    -89.00   -0.0196    1.5935
    -88.00   -0.0234    1.5920
    -87.00   -0.0271    1.5897
    -86.00   -0.0310    1.5863
    -85.00   -0.0349    1.5821
    -84.00   -0.0389    1.5769
    -83.00   -0.0430    1.5708
    -82.00   -0.0473    1.5637
    -81.00   -0.0516    1.5558
    -80.00   -0.0562    1.5469
    -79.00   -0.0609    1.5371
    -78.00   -0.0657    1.5265
    -77.00   -0.0708    1.5150
    -76.00   -0.0760    1.5026
    -75.00   -0.0814    1.4894
    -74.00   -0.0871    1.4754
    -73.00   -0.0929    1.4605
    -72.00   -0.0989    1.4449
    -71.00   -0.1051    1.4284
    -70.00   -0.1115    1.4112
    -69.00   -0.1181    1.3933
    -68.00   -0.1250    1.3747
    -67.00   -0.1319    1.3554
    -66.00   -0.1391    1.3354
    -65.00   -0.1464    1.3147
    -64.00   -0.1539    1.2935
    -63.00   -0.1615    1.2716
    -62.00   -0.1692    1.2492
    -61.00   -0.1771    1.2262
    -60.00   -0.1850    1.2027
    -59.00   -0.1930    1.1787
    -58.00   -0.2010    1.1543
    -57.00   -0.2091    1.1294
    -56.00   -0.2172    1.1041
    -55.00   -0.2252    1.0785
    -54.00   -0.2332    1.0524
    -53.00   -0.2412    1.0261
    -52.00   -0.2490    0.9995
    -51.00   -0.2567    0.9727
    -50.00   -0.2643    0.9456
    -49.00   -0.2716    0.9184
    -48.00   -0.2788    0.8909
    -47.00   -0.2857    0.8634
    -46.00   -0.2923    0.8358
    -45.00   -0.2987    0.8081
    -44.00   -0.3047    0.7804
    -43.00   -0.3104    0.7527
    -42.00   -0.3156    0.7251
    -41.00   -0.3205    0.6975
    -40.00   -0.3249    0.6701
    -39.00   -0.3289    0.6427
    -38.00   -0.3324    0.6156
    -37.00   -0.3355    0.5886
    -36.00   -0.3380    0.5619
    -35.00   -0.3400    0.5355
    -34.00   -0.3415    0.5093
    -33.00   -0.3425    0.4834
    -32.00   -0.3431    0.4579
    -31.00   -0.3432    0.4328
    -30.00   -0.3430    0.4080
    -29.00   -0.3426    0.3836
    -28.00   -0.3420    0.3597
    -27.00   -0.3416    0.3361
    -26.00   -0.3416    0.3129
    -25.00   -0.3426    0.2901
    -24.00   -0.3453    0.2676
    -23.00   -0.3509    0.2452
    -22.00   -0.3612    0.2229
    -21.00   -0.3790    0.2003
    -20.00   -0.4087    0.1769
    -19.00   -0.4568    0.1521
    -18.50   -0.7326    0.1235
    -18.00   -0.7516    0.1139
    -17.50   -0.7794    0.1034
    -17.00   -0.7832    0.0971
    -16.50   -0.7803    0.0920
    -16.00   -0.7745    0.0875
    -15.50   -0.7700    0.0830
    -15.00   -0.7797    0.0768
    -14.50   -0.7563    0.0765
    -14.00   -0.7448    0.0744
    -13.50   -0.7198    0.0707
    -13.00   -0.6830    0.0668
    -12.50   -0.6903    0.0572
    -12.00   -0.6382    0.0543
    -11.00   -0.5614    0.0488
    -10.50   -0.5199    0.0450
    -10.00   -0.4657    0.0418
     -9.00   -0.4394    0.0304
     -8.50   -0.4421    0.0230
     -8.00   -0.3798    0.0126
     -7.50   -0.2559    0.0076
     -7.00   -0.1900    0.0080
     -6.50   -0.1362    0.0086
     -6.00   -0.0850    0.0100
     -5.50   -0.0277    0.0096
     -5.00    0.0309    0.0094
     -4.50    0.0886    0.0095
     -4.00    0.1448    0.0098
     -3.50    0.2021    0.0101
     -3.00    0.2613    0.0100
     -2.50    0.3205    0.0099
     -2.00    0.3817    0.0097
     -1.50    0.4415    0.0096
     -1.00    0.5001    0.0096
     -0.50    0.5591    0.0097
      0.00    0.6197    0.0096
      0.50    0.6798    0.0096
      1.00    0.7392    0.0096
      1.50    0.7978    0.0097
      2.00    0.8552    0.0099
      2.50    0.9119    0.0101
      3.00    0.9692    0.0104
      3.50    1.0273    0.0105
      4.00    1.0848    0.0107
      4.50    1.1416    0.0108
      5.00    1.1978    0.0109
      5.50    1.2531    0.0111
      6.00    1.3081    0.0113
      6.50    1.3611    0.0116
      7.00    1.4142    0.0119
      7.50    1.4697    0.0120
      8.00    1.5238    0.0121
      8.50    1.5680    0.0126
      9.00    1.5979    0.0138
      9.50    1.6085    0.0162
     10.00    1.6309    0.0179
     10.50    1.6506    0.0197
     11.00    1.6654    0.0219
     11.50    1.6808    0.0241
     12.00    1.6931    0.0267
     12.50    1.7019    0.0299
     13.00    1.7047    0.0342
     13.50    1.7113    0.0384
     14.00    1.7055    0.0443
     14.50    1.6966    0.0511
     15.00    1.6917    0.0578
     15.50    1.6807    0.0654
     16.00    1.6629    0.0739
     16.50    1.6483    0.0816
     17.00    1.6264    0.0909
     17.50    1.6290    0.0968
     18.00    1.6123    0.1060
     18.50    1.6091    0.1129
     19.00    1.5783    0.1241
     19.50    1.5609    0.1333
     21.00    1.5639    0.1520
     21.50    1.5752    0.1565
     22.00    1.5844    0.1615
     22.50    1.5714    0.1704
     23.00    1.5730    0.1771
     23.50    1.5723    0.1843
     24.00    1.5532    0.1961
     24.50    1.5459    0.2055
     25.00    1.5227    0.2194
     26.00    1.3777    0.2795
     27.00    1.3693    0.3056
     28.00    1.3643    0.3323
     29.00    1.3621    0.3595
     30.00    1.3623    0.3871
     31.00    1.3646    0.4151
     32.00    1.3685    0.4434
     33.00    1.3738    0.4721
     34.00    1.3801    0.5012
     35.00    1.3871    0.5305
     36.00    1.3946    0.5601
     37.00    1.4024    0.5899
     38.00    1.4102    0.6200
     39.00    1.4178    0.6502
     40.00    1.4252    0.6806
     41.00    1.4322    0.7111
     42.00    1.4386    0.7417
     43.00    1.4443    0.7723
     44.00    1.4492    0.8030
     45.00    1.4532    0.8337
     46.00    1.4563    0.8644
     47.00    1.4583    0.8949
     48.00    1.4592    0.9254
     49.00    1.4589    0.9558
     50.00    1.4574    0.9860
     51.00    1.4546    1.0160
     52.00    1.4504    1.0457
     53.00    1.4449    1.0752
     54.00    1.4380    1.1044
     55.00    1.4296    1.1332
     56.00    1.4198    1.1617
     57.00    1.4085    1.1898
     58.00    1.3957    1.2174
     59.00    1.3813    1.2446
     60.00    1.3655    1.2712
     61.00    1.3481    1.2974
     62.00    1.3292    1.3229
     63.00    1.3088    1.3479
     64.00    1.2869    1.3723
     65.00    1.2634    1.3960
     66.00    1.2384    1.4190
     67.00    1.2120    1.4413
     68.00    1.1841    1.4629
     69.00    1.1547    1.4837
     70.00    1.1239    1.5037
     71.00    1.0917    1.5229
     72.00    1.0582    1.5413
     73.00    1.0233    1.5588
     74.00    0.9871    1.5755
     75.00    0.9497    1.5912
     76.00    0.9110    1.6061
     77.00    0.8711    1.6200
     78.00    0.8302    1.6329
     79.00    0.7881    1.6449
     80.00    0.7450    1.6558
     81.00    0.7009    1.6658
     82.00    0.6559    1.6748
     83.00    0.6100    1.6828
     84.00    0.5633    1.6897
     85.00    0.5158    1.6956
     86.00    0.4677    1.7005
     87.00    0.4189    1.7043
     88.00    0.3696    1.7070
     89.00    0.3197    1.7087
     90.00    0.2695    1.7093
     91.00    0.2188    1.7089
     92.00    0.1679    1.7074
     93.00    0.1168    1.7048
     94.00    0.0655    1.7012
     95.00    0.0142    1.6966
     96.00   -0.0372    1.6908
     97.00   -0.0884    1.6841
     98.00   -0.1396    1.6763
     99.00   -0.1905    1.6676
    100.00   -0.2411    1.6578
    101.00   -0.2913    1.6470
    102.00   -0.3411    1.6352
    103.00   -0.3904    1.6225
    104.00   -0.4390    1.6088
    105.00   -0.4870    1.5942
    106.00   -0.5343    1.5787
    107.00   -0.5808    1.5623
    108.00   -0.6264    1.5450
    109.00   -0.6710    1.5269
    110.00   -0.7146    1.5080
    111.00   -0.7572    1.4882
    112.00   -0.7986    1.4677
    113.00   -0.8388    1.4464
    114.00   -0.8777    1.4244
    115.00   -0.9153    1.4016
    116.00   -0.9515    1.3783
    117.00   -0.9863    1.3543
    118.00   -1.0196    1.3296
    119.00   -1.0514    1.3044
    120.00   -1.0816    1.2787
    121.00   -1.1102    1.2524
    122.00   -1.1454    1.2256
    123.00   -1.1706    1.1984
    124.00   -1.1940    1.1708
    125.00   -1.2157    1.1428
    126.00   -1.2355    1.1145
    127.00   -1.2536    1.0859
    128.00   -1.2698    1.0569
    129.00   -1.2842    1.0278
    130.00   -1.2967    0.9984
    131.00   -1.3073    0.9689
    132.00   -1.3160    0.9393
    133.00   -1.3229    0.9095
    134.00   -1.3278    0.8797
    135.00   -1.3309    0.8499
    136.00   -1.3321    0.8201
    137.00   -1.3315    0.7904
    138.00   -1.3289    0.7607
    139.00   -1.3246    0.7312
    140.00   -1.3185    0.7018
    141.00   -1.3105    0.6727
    142.00   -1.3008    0.6437
    143.00   -1.2894    0.6151
    144.00   -1.2764    0.5867
    145.00   -1.2616    0.5587
    146.00   -1.2453    0.5311
    147.00   -1.2274    0.5039
    148.00   -1.2081    0.4771
    149.00   -1.1872    0.4508
    150.00   -1.1650    0.4250
    151.00   -1.1415    0.3997
    152.00   -1.1167    0.3750
    153.00   -1.0907    0.3508
    154.00   -1.0635    0.3273
    155.00   -1.0353    0.3045
    156.00   -1.0061    0.2823
    157.00   -0.9760    0.2609
    158.00   -0.9451    0.2401
    159.00   -0.9134    0.2202
    160.00   -0.8810    0.2010
    161.00   -0.8481    0.1826
    162.00   -0.8146    0.1650
    163.00   -0.7808    0.1482
    164.00   -0.7466    0.1323
    165.00   -0.7122    0.1173
    166.00   -0.6776    0.1032
    167.00   -0.6430    0.0900
    168.00   -0.6084    0.0777
    169.00   -0.5739    0.0664
    170.00   -0.5395    0.0560
    171.00   -0.5052    0.0465
    172.00   -0.4710    0.0381
    173.00   -0.4369    0.0306
    174.00   -0.4025    0.0241
    175.00   -0.3675    0.0186
    176.00   -0.3314    0.0140
    177.00   -0.2931    0.0105
    178.00   -0.2513    0.0080
    179.00   -0.2044    0.0065
    180.00   -0.1502    0.0060